<?xml version="1.0" encoding="UTF-8"?>

<!-- generated on Thu Apr 19 10:21:32 2018 by SUMO duarouter Version 0.30.0
<?xml version="1.0" encoding="UTF-8"?>

<configuration xmlns:xsi="http://www.w3.org/2001/XMLSchema-instance" xsi:noNamespaceSchemaLocation="http://sumo.dlr.de/xsd/duarouterConfiguration.xsd">

    <input>
        <net-file value="IRTSystemX.net.xml"/>
        <additional-files value="type.add.xml"/>
        <trip-files value="trips.trips.xml"/>
    </input>

    <output>
        <output-file value="IRTSystemX.1.rou.xml"/>
    </output>

    <processing>
        <ignore-errors value="true"/>
    </processing>

    <time>
        <begin value="100.0"/>
        <end value="10000.0"/>
    </time>

    <report>
        <no-warnings value="true"/>
        <no-step-log value="true"/>
    </report>

</configuration>
-->

<routes xmlns:xsi="http://www.w3.org/2001/XMLSchema-instance" xsi:noNamespaceSchemaLocation="http://sumo.dlr.de/xsd/routes_file.xsd">
    <vehicle id="b0" depart="100.00">
        <route edges="-489344451#0 406513809 -404295023 47519280#0 47519280#1 47519280#2 47519280#3 47519280#4 -263684089 -263684088 -263684087#1 -263684087#0"/>
    </vehicle>
    <vehicle id="b1" depart="103.00">
        <route edges="-263684087#1 263684087#1 263684088 263684089 -47519280#4 -47519280#3 -47519280#2 -47519280#1 -47519280#0 404295023 548881045 548881046#0 548881046#1 363081449#0 363081449#1 363081449#2 363081449#3 339736822#0 -339736822#0"/>
    </vehicle>
    <vehicle id="b2" depart="106.00">
        <route edges="339736822#2 -339736822#2 -339736822#1 -339736822#0 -363081449#3 -363081449#2 -363081449#1 -363081449#0 -548881046#1 -548881046#0 -548881045 -404295023 47519280#0 47519280#1 47519280#2 -47519280#2"/>
    </vehicle>
    <vehicle id="b3" depart="109.00">
        <route edges="-408197310#5 408197310#5 548881049 363082411#0 363082411#1 363082411#2 376385690#0 376385690#1 376385690#2 376385690#3 376385690#4 376385690#5 404287181#0 404287181#1 47519280#1 47519280#2 47519280#3"/>
    </vehicle>
    <vehicle id="b4" depart="112.00">
        <route edges="-339736822#2"/>
    </vehicle>
    <vehicle id="b5" depart="115.00">
        <route edges="406017622#1 -83487127#0 404287181#0 404287181#1 47519280#1 47519280#2 47519280#3 47519280#4 -47519280#4"/>
    </vehicle>
    <vehicle id="b6" depart="118.00">
        <route edges="-408197310#5 -408197310#4 -408197310#3 -408197310#2 -408197310#1 -408197310#0 -408197311#2 -408197311#1 -408197311#0"/>
    </vehicle>
    <vehicle id="b7" depart="121.00">
        <route edges="408197311#0 408197311#1 408197311#2 408197311#3 408197311#4 408197311#5 408197311#6 83487127#0 410000810#0 410000810#1 410000810#2 410000810#3 410000810#4"/>
    </vehicle>
    <vehicle id="b8" depart="124.00">
        <route edges="-118793670#1 -118793670#0 -410000812 -410000816 406513809 406017622#0 406017622#1 -83487127#0 -408197311#6 -408197311#5 -408197311#4 -408197311#3 -408197311#2 408197311#2"/>
    </vehicle>
    <vehicle id="b9" depart="127.00">
        <route edges="47519280#3 47519280#4"/>
    </vehicle>
    <vehicle id="b11" depart="133.00">
        <route edges="-83487127#4 -83487127#3 -83487127#2 -83487127#1 -83487127#0 -408197311#6 -408197311#5 -408197311#4 -408197311#3 -408197311#2 -408197311#1 408197311#1"/>
    </vehicle>
    <vehicle id="b12" depart="136.00">
        <route edges="-548881046#1 -548881046#0 -548881045 406017622#0 406017622#1"/>
    </vehicle>
    <vehicle id="b13" depart="139.00">
        <route edges="-408197310#5 408197310#5 548881049 363082411#0 363082411#1 363082411#2 376385690#0 376385690#1 376385690#2 376385690#3 376385690#4 376385690#5 83487127#0 83487127#1 83487127#2 83487127#3 83487127#4"/>
    </vehicle>
    <vehicle id="b14" depart="142.00">
        <route edges="-408197310#4"/>
    </vehicle>
    <vehicle id="b15" depart="145.00">
        <route edges="-392689403#1 -392689403#0 -47519280#4 -47519280#3 -47519280#2 -47519280#1 404287181#2 410000816 410000812 118793670#0 118793670#1 -118793670#1"/>
    </vehicle>
    <vehicle id="b16" depart="148.00">
        <route edges="263684087#0 263684087#1 263684088 263684089 392689403#0 392689403#1 361585734 450271743"/>
    </vehicle>
    <vehicle id="b17" depart="151.00">
        <route edges="-47519280#2 47519280#2 47519280#3 47519280#4 -263684089 -263684088 -263684087#1 -263684087#0"/>
    </vehicle>
    <vehicle id="b19" depart="157.00">
        <route edges="83487127#6 -83487127#6 -83487127#5 -83487127#4 -83487127#3 -83487127#2 -83487127#1 -83487127#0 -408197311#6 -408197311#5 -408197311#4 -408197311#3 -408197311#2 -408197311#1 -408197311#0 -450271743 -361585734 -392689403#1"/>
    </vehicle>
    <vehicle id="b20" depart="160.00">
        <route edges="-424959220 424959220 363082411#0 363082411#1 363082411#2 376385690#0 376385690#1 376385690#2 376385690#3 376385690#4 376385690#5 404287181#0 404287181#1 47519280#1 47519280#2"/>
    </vehicle>
    <vehicle id="b21" depart="163.00">
        <route edges="118075890#0 -118075890#0 392689404 -83487127#6 -83487127#5 -83487127#4 -83487127#3 -83487127#2 -83487127#1 -83487127#0 404287181#0 404287181#1 47519280#1 47519280#2 47519280#3 47519280#4 -263684089 -263684088 -263684087#1 263684087#1"/>
    </vehicle>
    <vehicle id="b22" depart="166.00">
        <route edges="408197311#3 -408197311#3 -408197311#2 -408197311#1 -408197311#0 -450271743 -361585734 -392689403#1 392689403#1"/>
    </vehicle>
    <vehicle id="b23" depart="169.00">
        <route edges="263684087#0 263684087#1 263684088 263684089 -47519280#4 -47519280#3 -47519280#2 47519280#2"/>
    </vehicle>
    <vehicle id="b24" depart="172.00">
        <route edges="339736822#2 -339736822#2 -339736822#1 -339736822#0 -363081449#3 -363081449#2 -363081449#1 -363081449#0 -548881046#1 -548881046#0 -548881045 -404295023 47519280#0 404287181#2 489344451#0"/>
    </vehicle>
    <vehicle id="b25" depart="175.00">
        <route edges="-263684089 263684089 392689403#0 392689403#1 361585734 450271743 408197311#0 408197311#1 408197311#2 408197310#0 408197310#1 408197310#2 408197310#3 408197310#4 408197310#5 -408197310#5"/>
    </vehicle>
    <vehicle id="b26" depart="178.00">
        <route edges="-47519280#4 -47519280#3 -47519280#2 -47519280#1 -47519280#0 404295023 406017622#0 406017622#1 -83487127#0 -408197311#6 -408197311#5 -408197311#4 -408197311#3"/>
    </vehicle>
    <vehicle id="b28" depart="184.00">
        <route edges="-339736822#2 -339736822#1 -339736822#0 -118075890#7 -118075890#6 -118075890#5 -118075890#4 -118075890#3 -118075890#2 -118075890#1 -118075890#0 392689404 -83487127#6"/>
    </vehicle>
    <vehicle id="b30" depart="190.00">
        <route edges="263684087#0 263684087#1 -263684087#1"/>
    </vehicle>
    <vehicle id="b31" depart="193.00">
        <route edges="-392689403#1 -392689403#0 -47519280#4 -47519280#3 47519280#3"/>
    </vehicle>
    <vehicle id="b32" depart="196.00">
        <route edges="410000810#2 410000810#3 410000810#4 410000810#5 410000810#6 424959220 363082411#0 363082411#1 363082411#2 376385690#0 376385690#1 376385690#2 376385690#3 376385690#4 376385690#5 404287181#0 404287181#1 -47519280#0 404295023 548881045 548881046#0 548881046#1 363081449#0 363081449#1 363081449#2 363081449#3 339736822#0 339736822#1 339736822#2 339736822#3"/>
    </vehicle>
    <vehicle id="b34" depart="202.00">
        <route edges="406017622#1 -83487127#0 -408197311#6 -408197311#5 -408197311#4 -408197311#3 -408197311#2 -408197311#1 -408197311#0 -450271743 -361585734 -392689403#1"/>
    </vehicle>
    <vehicle id="b35" depart="205.00">
        <route edges="408197310#5 548881049 363082411#0 363082411#1 363082411#2 376385690#0 376385690#1 376385690#2 376385690#3 376385690#4 376385690#5 404287181#0 404287181#1 -47519280#0 404295023 548881045 548881046#0 548881046#1 363081449#0 363081449#1 363081449#2 363081449#3 339736822#0 339736822#1 -339736822#1"/>
    </vehicle>
    <vehicle id="b36" depart="208.00">
        <route edges="-118075890#2 -118075890#1 -118075890#0 392689404 -83487127#6 -83487127#5 -83487127#4 -83487127#3 -83487127#2 -83487127#1 -83487127#0 404287181#0 404287181#1 47519280#1 47519280#2 47519280#3 -47519280#3"/>
    </vehicle>
    <vehicle id="b37" depart="211.00">
        <route edges="-408197311#4 408197311#4 408197311#5 408197311#6 83487127#0 83487127#1 83487127#2 83487127#3"/>
    </vehicle>
    <vehicle id="b38" depart="214.00">
        <route edges="-83487127#6 83487127#6"/>
    </vehicle>
    <vehicle id="b40" depart="220.00">
        <route edges="548881049 363082411#0 363082411#1 363082411#2 376385690#0 376385690#1 376385690#2 376385690#3 376385690#4 376385690#5 404287181#0 404287181#1 47519280#1 47519280#2 -47519280#2"/>
    </vehicle>
    <vehicle id="b41" depart="223.00">
        <route edges="408197311#4 -408197311#4 -408197311#3"/>
    </vehicle>
    <vehicle id="b43" depart="229.00">
        <route edges="-408197311#3 408197311#3 408197311#4 408197311#5 408197311#6 404287181#0 404287181#1 47519280#1 47519280#2"/>
    </vehicle>
    <vehicle id="b44" depart="232.00">
        <route edges="-47519280#3 -47519280#2 -47519280#1 -47519280#0 404295023 406017622#0 406017622#1 410000810#0 410000810#1 410000810#2 410000810#3 410000810#4 410000810#5 410000810#6 424959220 -548881049 -408197310#5 408197310#5"/>
    </vehicle>
    <vehicle id="b45" depart="235.00">
        <route edges="363082411#1 363082411#2 376385690#0 376385690#1 376385690#2 376385690#3 376385690#4 376385690#5 -408197311#6 -408197311#5 -408197311#4 -408197311#3 -408197311#2 -408197311#1 -408197311#0"/>
    </vehicle>
    <vehicle id="b47" depart="241.00">
        <route edges="-263684089 263684089 392689403#0 392689403#1 361585734 450271743 408197311#0"/>
    </vehicle>
    <vehicle id="b48" depart="244.00">
        <route edges="406017622#1 -83487127#0 404287181#0 404287181#1 404287181#2 410000816 410000812 118793670#0 118793670#1 -489344451#1 -489344451#0"/>
    </vehicle>
    <vehicle id="b49" depart="247.00">
        <route edges="408197311#3 408197311#4 408197311#5 408197311#6 404287181#0 404287181#1 -47519280#0 404295023 406017622#0 406017622#1"/>
    </vehicle>
    <vehicle id="b50" depart="250.00">
        <route edges="339736822#0 -339736822#0 -363081449#3 -363081449#2 -363081449#1 -363081449#0 -548881046#1 -548881046#0 -548881045 -404295023 47519280#0 47519280#1 47519280#2 47519280#3 47519280#4 -263684089 -263684088"/>
    </vehicle>
    <vehicle id="b51" depart="253.00">
        <route edges="-47519280#3 -47519280#2 -47519280#1 -47519280#0 404295023 406017622#0 406017622#1 410000810#0 410000810#1 410000810#2 410000810#3 410000810#4 410000810#5 410000810#6 424959220 -548881049 -408197310#5 -408197310#4"/>
    </vehicle>
    <vehicle id="b52" depart="256.00">
        <route edges="410000810#6 424959220 -548881049 -408197310#5 -408197310#4 -408197310#3 -408197310#2 -408197310#1 -408197310#0 -408197311#2 -408197311#1 -408197311#0 -450271743 -361585734 -392689403#1 -392689403#0 -263684089 -263684088 -263684087#1"/>
    </vehicle>
    <vehicle id="b53" depart="259.00">
        <route edges="-47519280#4 -47519280#3 -47519280#2 -47519280#1 -47519280#0 404295023 406017622#0 406017622#1"/>
    </vehicle>
    <vehicle id="b55" depart="265.00">
        <route edges="408197311#4"/>
    </vehicle>
    <vehicle id="b57" depart="271.00">
        <route edges="-489344451#0 406513809 406017622#0 406017622#1 410000810#0 410000810#1 410000810#2 410000810#3 410000810#4 410000810#5 410000810#6 410000810#7 410000810#8"/>
    </vehicle>
    <vehicle id="b58" depart="274.00">
        <route edges="-408197310#4 408197310#4 408197310#5 -408197310#5"/>
    </vehicle>
    <vehicle id="b59" depart="277.00">
        <route edges="-47519280#2 47519280#2 47519280#3 47519280#4 392689403#0 392689403#1"/>
    </vehicle>
    <vehicle id="b60" depart="280.00">
        <route edges="450271743 408197311#0 408197311#1 408197311#2 408197311#3 -408197311#3"/>
    </vehicle>
    <vehicle id="b61" depart="283.00">
        <route edges="410000810#1 410000810#2 410000810#3 410000810#4 410000810#5 410000810#6 424959220 -548881049 -408197310#5 -408197310#4 -408197310#3 -408197310#2 -408197310#1 -408197310#0 -408197311#2 -408197311#1 -408197311#0 -450271743 -361585734 -392689403#1 -392689403#0 -263684089 -263684088 -263684087#1 -263684087#0"/>
    </vehicle>
    <vehicle id="b62" depart="286.00">
        <route edges="410000810#5 410000810#6 424959220 -548881049 -408197310#5 -408197310#4 -408197310#3 -408197310#2 -408197310#1 -408197310#0 -408197311#2 -408197311#1 -408197311#0 -450271743 -361585734 -392689403#1 -392689403#0 -263684089 -263684088 -263684087#1 -263684087#0"/>
    </vehicle>
    <vehicle id="b63" depart="289.00">
        <route edges="97050358 -97050358"/>
    </vehicle>
    <vehicle id="b64" depart="292.00">
        <route edges="408197310#4 408197310#5 548881049 363082411#0 363082411#1 363082411#2 376385690#0 376385690#1 376385690#2 376385690#3 376385690#4 376385690#5 404287181#0 404287181#1 -47519280#0 404295023 406017622#0 406017622#1"/>
    </vehicle>
    <vehicle id="b65" depart="295.00">
        <route edges="404287181#2 406513809 -404295023 47519280#0 47519280#1 47519280#2 47519280#3 47519280#4 -263684089 -263684088 -263684087#1"/>
    </vehicle>
    <vehicle id="b66" depart="298.00">
        <route edges="-339736822#1 -339736822#0 -118075890#7 -118075890#6 -118075890#5 -118075890#4 -118075890#3 -118075890#2 -118075890#1 -118075890#0 392689404 -83487127#6 -83487127#5 -83487127#4 83487127#4"/>
    </vehicle>
    <vehicle id="b68" depart="304.00">
        <route edges="339736822#2 -339736822#2 -339736822#1 -339736822#0 -363081449#3 -363081449#2 -363081449#1 -363081449#0 -548881046#1 -548881046#0 -548881045 406017622#0 406017622#1 410000810#0 410000810#1 410000810#2 410000810#3 410000810#4 410000810#5 410000810#6 424959220 -548881049 -408197310#5 408197310#5"/>
    </vehicle>
    <vehicle id="b69" depart="307.00">
        <route edges="263684087#0 263684087#1 263684088 263684089 392689403#0 392689403#1 361585734 450271743 408197311#0 408197311#1 408197311#2 408197310#0 408197310#1 408197310#2 408197310#3 -408197310#3"/>
    </vehicle>
    <vehicle id="b70" depart="310.00">
        <route edges="263684089 392689403#0 392689403#1 361585734 450271743 408197311#0 408197311#1 408197311#2 408197310#0 408197310#1 408197310#2 408197310#3 408197310#4 408197310#5"/>
    </vehicle>
    <vehicle id="b71" depart="313.00">
        <route edges="-392689403#1 392689403#1 361585734 450271743 408197311#0 408197311#1 408197311#2 408197310#0 408197310#1 408197310#2 408197310#3 408197310#4 408197310#5 -408197310#5"/>
    </vehicle>
    <vehicle id="b72" depart="316.00">
        <route edges="-47519280#2 -47519280#1 -47519280#0 404295023 406017622#0 406017622#1 410000810#0 410000810#1 410000810#2 410000810#3 410000810#4 410000810#5 410000810#6 424959220 -548881049 -408197310#5"/>
    </vehicle>
    <vehicle id="b74" depart="322.00">
        <route edges="-408197310#5 408197310#5 548881049 363082411#0 363082411#1 363082411#2 376385690#0 376385690#1 376385690#2 376385690#3 376385690#4 376385690#5 404287181#0 404287181#1 404287181#2 410000816 410000812 118793670#0 118793670#1 -489344451#1"/>
    </vehicle>
    <vehicle id="b75" depart="325.00">
        <route edges="118075890#6 118075890#7 -363081449#3 -363081449#2 -363081449#1 -363081449#0 -548881046#1 -548881046#0 -548881045 -404295023 47519280#0 404287181#2 410000816 410000812 118793670#0 -97050358"/>
    </vehicle>
    <vehicle id="b76" depart="328.00">
        <route edges="408197310#4 -408197310#4 -408197310#3 -408197310#2 -408197310#1 -408197310#0 -408197311#2 -408197311#1 -408197311#0 -450271743 -361585734 -392689403#1 -392689403#0 -263684089 263684089"/>
    </vehicle>
    <vehicle id="b77" depart="331.00">
        <route edges="-408197310#5 408197310#5 548881049 363082411#0 363082411#1 363082411#2 376385690#0 376385690#1 376385690#2 376385690#3 376385690#4 376385690#5 83487127#0 410000810#0 410000810#1 410000810#2 410000810#3 410000810#4 410000810#5"/>
    </vehicle>
    <vehicle id="b79" depart="337.00">
        <route edges="408197310#4 -408197310#4 -408197310#3 -408197310#2 -408197310#1 -408197310#0 -408197311#2 -408197311#1 -408197311#0 408197311#0"/>
    </vehicle>
    <vehicle id="b80" depart="340.00">
        <route edges="263684087#0 263684087#1 263684088 263684089 392689403#0 392689403#1 361585734 450271743 408197311#0 408197311#1 408197311#2 408197310#0 408197310#1 408197310#2 408197310#3 408197310#4"/>
    </vehicle>
    <vehicle id="b81" depart="343.00">
        <route edges="263684087#0 263684087#1 263684088 263684089 392689403#0 392689403#1 361585734 450271743 408197311#0 408197311#1"/>
    </vehicle>
    <vehicle id="b82" depart="346.00">
        <route edges="392689403#1 361585734 450271743 408197311#0 408197311#1 408197311#2 408197311#3 408197311#4 408197311#5 408197311#6 83487127#0 -83487127#0"/>
    </vehicle>
    <vehicle id="b83" depart="349.00">
        <route edges="363081449#3 -363081449#3 -363081449#2 -363081449#1 -363081449#0 -548881046#1 -548881046#0 -548881045 -404295023 47519280#0 404287181#2 489344451#0"/>
    </vehicle>
    <vehicle id="b85" depart="355.00">
        <route edges="406513809 406017622#0 406017622#1 -83487127#0 -408197311#6 -408197311#5 -408197311#4 -408197311#3"/>
    </vehicle>
    <vehicle id="b86" depart="358.00">
        <route edges="316905861#1 316905861#2 -548881049 -408197310#5 -408197310#4 -408197310#3 -408197310#2 -408197310#1 -408197310#0 -408197311#2 -408197311#1 -408197311#0 -450271743 -361585734 -392689403#1 -392689403#0 -263684089 -263684088 -263684087#1 -263684087#0"/>
    </vehicle>
    <vehicle id="b87" depart="361.00">
        <route edges="263684087#0 263684087#1"/>
    </vehicle>
    <vehicle id="b88" depart="364.00">
        <route edges="410000810#6 424959220 363082411#0 363082411#1 363082411#2 376385690#0 376385690#1 376385690#2 376385690#3 376385690#4 376385690#5 404287181#0 404287181#1 47519280#1 47519280#2"/>
    </vehicle>
    <vehicle id="b89" depart="367.00">
        <route edges="-339736822#1 -339736822#0 -363081449#3 -363081449#2 -363081449#1 -363081449#0 -548881046#1 -548881046#0 -548881045 406017622#0 406017622#1 -83487127#0 -408197311#6 -408197311#5 -408197311#4 -408197311#3"/>
    </vehicle>
    <vehicle id="b90" depart="370.00">
        <route edges="97050358 -118793670#0 -410000812 -410000816 406513809 548881045 548881046#0 548881046#1 363081449#0 363081449#1 363081449#2 363081449#3 339736822#0 339736822#1 -339736822#1"/>
    </vehicle>
    <vehicle id="b91" depart="373.00">
        <route edges="406017622#1 410000810#0 410000810#1 410000810#2 410000810#3 410000810#4 410000810#5 410000810#6 424959220 -548881049 -408197310#5 -408197310#4"/>
    </vehicle>
    <vehicle id="b92" depart="376.00">
        <route edges="-47519280#2 -47519280#1 -47519280#0 404295023 406017622#0 406017622#1 410000810#0 410000810#1 410000810#2 410000810#3 410000810#4 410000810#5 410000810#6 424959220 -548881049 -408197310#5"/>
    </vehicle>
    <vehicle id="b93" depart="379.00">
        <route edges="-408197311#0 -450271743 -361585734 -392689403#1 -392689403#0 -263684089 -263684088 -263684087#1 -263684087#0"/>
    </vehicle>
    <vehicle id="b94" depart="382.00">
        <route edges="-263684089 263684089 392689403#0 392689403#1 361585734 450271743 408197311#0 408197311#1 408197311#2 408197310#0 408197310#1 408197310#2 408197310#3 408197310#4 408197310#5 548881049 -424959220 410000810#7 410000810#8"/>
    </vehicle>
    <vehicle id="b95" depart="385.00">
        <route edges="406513809 548881045 548881046#0 548881046#1 363081449#0 363081449#1 363081449#2 363081449#3 339736822#0 339736822#1"/>
    </vehicle>
    <vehicle id="b96" depart="388.00">
        <route edges="118793670#1 -118793670#1 -118793670#0 -410000812 -410000816 406513809 548881045 548881046#0 548881046#1 363081449#0 363081449#1 363081449#2 363081449#3 339736822#0 339736822#1 339736822#2"/>
    </vehicle>
    <vehicle id="b98" depart="394.00">
        <route edges="408197310#5 -408197310#5 -408197310#4 -408197310#3 -408197310#2 -408197310#1 -408197310#0 -408197311#2 -408197311#1 -408197311#0 -450271743 -361585734 -392689403#1 -392689403#0 -47519280#4"/>
    </vehicle>
    <vehicle id="b99" depart="397.00">
        <route edges="83487127#3 -83487127#3 -83487127#2 -83487127#1 -83487127#0 404287181#0 404287181#1 -47519280#0 404295023 548881045 548881046#0 548881046#1 363081449#0 363081449#1 -363081449#1"/>
    </vehicle>
    <vehicle id="b101" depart="403.00">
        <route edges="392689403#1 361585734 450271743 408197311#0 408197311#1 408197311#2 408197311#3 408197311#4 408197311#5 408197311#6 404287181#0 404287181#1 -47519280#0 404295023 548881045 548881046#0 548881046#1 363081449#0 363081449#1 363081449#2 363081449#3 339736822#0 339736822#1"/>
    </vehicle>
    <vehicle id="b102" depart="406.00">
        <route edges="376385690#3 376385690#4 376385690#5 404287181#0 404287181#1 47519280#1 47519280#2 -47519280#2"/>
    </vehicle>
    <vehicle id="b103" depart="409.00">
        <route edges="408197310#3 -408197310#3 -408197310#2 -408197310#1 -408197310#0 408197311#3 408197311#4 408197311#5 408197311#6 404287181#0 404287181#1 -47519280#0 404295023 406017622#0 406017622#1"/>
    </vehicle>
    <vehicle id="b104" depart="412.00">
        <route edges="408197310#5 548881049 363082411#0 363082411#1 363082411#2 376385690#0 376385690#1 376385690#2 376385690#3 376385690#4 376385690#5 404287181#0 404287181#1 404287181#2 410000816 410000812 118793670#0 118793670#1 -118793670#1"/>
    </vehicle>
    <vehicle id="b105" depart="415.00">
        <route edges="408197311#0 408197311#1 408197311#2 408197311#3 408197311#4 408197311#5 408197311#6 83487127#0 410000810#0 410000810#1"/>
    </vehicle>
    <vehicle id="b106" depart="418.00">
        <route edges="118075890#6 118075890#7 -363081449#3 -363081449#2 -363081449#1 -363081449#0 -548881046#1 -548881046#0 -548881045 -404295023 47519280#0 404287181#2 410000816 410000812 118793670#0 118793670#1 -489344451#1 -489344451#0"/>
    </vehicle>
    <vehicle id="b107" depart="421.00">
        <route edges="408197310#4 408197310#5 548881049 363082411#0 363082411#1 363082411#2 376385690#0 376385690#1 376385690#2 376385690#3 376385690#4 376385690#5 404287181#0 404287181#1 47519280#1 47519280#2"/>
    </vehicle>
    <vehicle id="b108" depart="424.00">
        <route edges="-263684087#1"/>
    </vehicle>
    <vehicle id="b109" depart="427.00">
        <route edges="-392689403#1 -392689403#0 -47519280#4 -47519280#3 -47519280#2 -47519280#1 -47519280#0 404295023 406017622#0 406017622#1 410000810#0 410000810#1 410000810#2 410000810#3 410000810#4 410000810#5 410000810#6"/>
    </vehicle>
    <vehicle id="b110" depart="430.00">
        <route edges="408197311#0 408197311#1 408197311#2 408197311#3 408197311#4 408197311#5"/>
    </vehicle>
    <vehicle id="b111" depart="433.00">
        <route edges="-263684087#1 263684087#1 263684088 263684089 -47519280#4 -47519280#3 -47519280#2 -47519280#1 -47519280#0 404295023 548881045 548881046#0 548881046#1 363081449#0 363081449#1 363081449#2 363081449#3 339736822#0 339736822#1"/>
    </vehicle>
    <vehicle id="b112" depart="436.00">
        <route edges="-118793670#1 -118793670#0 -410000812 -410000816 406513809 406017622#0 406017622#1 410000810#0 410000810#1 410000810#2 410000810#3 410000810#4 410000810#5 410000810#6 410000810#7 410000810#8"/>
    </vehicle>
    <vehicle id="b113" depart="439.00">
        <route edges="47519280#2 -47519280#2 -47519280#1 -47519280#0 404295023 406017622#0 406017622#1 -83487127#0 -408197311#6 -408197311#5 -408197311#4 -408197311#3 408197310#0 408197310#1 408197310#2 408197310#3 -408197310#3"/>
    </vehicle>
    <vehicle id="b114" depart="442.00">
        <route edges="408197311#3"/>
    </vehicle>
    <vehicle id="b115" depart="445.00">
        <route edges="-339736822#0 -363081449#3 -363081449#2 -363081449#1 -363081449#0 -548881046#1 -548881046#0 -548881045 -404295023 47519280#0 47519280#1 47519280#2 47519280#3 47519280#4 -263684089 -263684088 -263684087#1 -263684087#0"/>
    </vehicle>
    <vehicle id="b116" depart="448.00">
        <route edges="-408197310#5 -408197310#4 -408197310#3 -408197310#2 -408197310#1 -408197310#0 -408197311#2 -408197311#1 -408197311#0 -450271743 -361585734 -392689403#1 -392689403#0 -47519280#4"/>
    </vehicle>
    <vehicle id="b117" depart="451.00">
        <route edges="-47519280#3 47519280#3 47519280#4"/>
    </vehicle>
    <vehicle id="b120" depart="460.00">
        <route edges="-408197311#3 408197311#3 408197311#4 408197311#5 408197311#6 404287181#0 404287181#1 -47519280#0 404295023 548881045 548881046#0 548881046#1 363081449#0 363081449#1 363081449#2 363081449#3 339736822#0 339736822#1 339736822#2"/>
    </vehicle>
    <vehicle id="b121" depart="463.00">
        <route edges="-339736822#1 -339736822#0 -363081449#3 -363081449#2 -363081449#1 -363081449#0 -548881046#1 -548881046#0 -548881045 -404295023 47519280#0 47519280#1 47519280#2"/>
    </vehicle>
    <vehicle id="b122" depart="466.00">
        <route edges="408197310#5 548881049 363082411#0 363082411#1 363082411#2 376385690#0 376385690#1 376385690#2 376385690#3 376385690#4 376385690#5 404287181#0 404287181#1 47519280#1 47519280#2"/>
    </vehicle>
    <vehicle id="b123" depart="469.00">
        <route edges="-450271743 -361585734 -392689403#1 -392689403#0 -47519280#4 -47519280#3"/>
    </vehicle>
    <vehicle id="b124" depart="472.00">
        <route edges="-408197311#3 408197311#3 408197311#4 408197311#5 408197311#6 83487127#0 83487127#1 83487127#2 83487127#3 83487127#4 83487127#5 83487127#6 -392689404 118075890#0 118075890#1 118075890#2"/>
    </vehicle>
    <vehicle id="b125" depart="475.00">
        <route edges="-47519280#4 -47519280#3 -47519280#2"/>
    </vehicle>
    <vehicle id="b126" depart="478.00">
        <route edges="-47519280#4 -47519280#3 -47519280#2 -47519280#1 -47519280#0 404295023 406017622#0 406017622#1 410000810#0 410000810#1 410000810#2 410000810#3 410000810#4 410000810#5 410000810#6 424959220 -548881049 -408197310#5 -408197310#4"/>
    </vehicle>
    <vehicle id="b127" depart="481.00">
        <route edges="47519280#2 -47519280#2 -47519280#1 -47519280#0 404295023 548881045 548881046#0 548881046#1 363081449#0 363081449#1 363081449#2 363081449#3 -118075890#7 -118075890#6"/>
    </vehicle>
    <vehicle id="b128" depart="484.00">
        <route edges="263684087#0 263684087#1 263684088 263684089 -47519280#4 -47519280#3 -47519280#2 47519280#2"/>
    </vehicle>
    <vehicle id="b129" depart="487.00">
        <route edges="-408197310#4 -408197310#3 -408197310#2 -408197310#1 -408197310#0 -408197311#2 -408197311#1 -408197311#0 -450271743 -361585734 -392689403#1 -392689403#0 -47519280#4 47519280#4"/>
    </vehicle>
    <vehicle id="b130" depart="490.00">
        <route edges="-408197310#5 -408197310#4 -408197310#3 -408197310#2 -408197310#1 -408197310#0 -408197311#2 -408197311#1 -408197311#0"/>
    </vehicle>
    <vehicle id="b131" depart="493.00">
        <route edges="410000810#6 424959220 363082411#0 363082411#1 363082411#2 376385690#0 376385690#1 376385690#2 376385690#3 376385690#4 376385690#5 83487127#0 83487127#1 83487127#2 83487127#3"/>
    </vehicle>
    <vehicle id="b132" depart="496.00">
        <route edges="-47519280#4 -47519280#3 -47519280#2 -47519280#1 -47519280#0 404295023 548881045 548881046#0 548881046#1 363081449#0 363081449#1 363081449#2 363081449#3 339736822#0 339736822#1"/>
    </vehicle>
    <vehicle id="b133" depart="499.00">
        <route edges="392689403#1 -392689403#1 -392689403#0 -263684089 -263684088 -263684087#1 -263684087#0"/>
    </vehicle>
    <vehicle id="b134" depart="502.00">
        <route edges="-392689403#1 392689403#1 361585734 450271743 408197311#0 -408197311#0"/>
    </vehicle>
    <vehicle id="b135" depart="505.00">
        <route edges="97050358 118793670#1"/>
    </vehicle>
    <vehicle id="b137" depart="511.00">
        <route edges="408197310#5 -408197310#5 -408197310#4 -408197310#3 -408197310#2 -408197310#1 -408197310#0 -408197311#2 -408197311#1 -408197311#0 -450271743 -361585734 -392689403#1 -392689403#0 -263684089 -263684088 -263684087#1 -263684087#0"/>
    </vehicle>
    <vehicle id="b138" depart="514.00">
        <route edges="410000810#1 410000810#2 410000810#3 410000810#4 410000810#5 410000810#6 424959220 -548881049 -408197310#5 -408197310#4 -408197310#3 -408197310#2 -408197310#1 -408197310#0 -408197311#2 -408197311#1 -408197311#0 -450271743 -361585734 -392689403#1 -392689403#0 -263684089 -263684088 -263684087#1 -263684087#0"/>
    </vehicle>
    <vehicle id="b139" depart="517.00">
        <route edges="118793670#1 -118793670#1 -118793670#0 -410000812 -410000816 406513809 548881045 548881046#0 548881046#1 363081449#0 363081449#1 363081449#2 363081449#3 339736822#0 339736822#1 -339736822#1"/>
    </vehicle>
    <vehicle id="b140" depart="520.00">
        <route edges="406513809 406017622#0 406017622#1 -83487127#0 -408197311#6 -408197311#5 -408197311#4 -408197311#3 408197310#0 408197310#1 408197310#2 408197310#3 408197310#4"/>
    </vehicle>
    <vehicle id="b141" depart="523.00">
        <route edges="392689403#1 -392689403#1 -392689403#0 -47519280#4 -47519280#3"/>
    </vehicle>
    <vehicle id="b142" depart="526.00">
        <route edges="-47519280#2 -47519280#1 -47519280#0 404295023 548881045 548881046#0 548881046#1 363081449#0 363081449#1 363081449#2 363081449#3 339736822#0 339736822#1 339736822#2 -339736822#2"/>
    </vehicle>
    <vehicle id="b143" depart="529.00">
        <route edges="339736822#2 -339736822#2 -339736822#1 -339736822#0 -363081449#3 -363081449#2 -363081449#1 -363081449#0 -548881046#1 -548881046#0 -548881045 406017622#0 406017622#1 410000810#0 410000810#1 410000810#2 410000810#3 410000810#4 410000810#5 410000810#6 410000810#7 410000810#8"/>
    </vehicle>
    <vehicle id="b144" depart="532.00">