<?xml version="1.0"?>
<!-- generated on 2018-04-19 10:21:27.371835 by $Id: randomTrips.py 23999 2017-04-21 09:04:47Z behrisch $
  options: <doubleminus>net-file IRTSystemX.net.xml <doubleminus>route-file IRTSystemX.1.rou.xml <doubleminus>begin 100 -l <doubleminus>end 10000 -l <doubleminus>period 3 -l <doubleminus>prefix b <doubleminus>additional-files type.add.xml
-->
<routes xmlns:xsi="http://www.w3.org/2001/XMLSchema-instance" xsi:noNamespaceSchemaLocation="http://sumo.dlr.de/xsd/routes_file.xsd">
    <trip id="b0" depart="100.00" from="-489344451#0" to="-263684087#0"/>
    <trip id="b1" depart="103.00" from="-263684087#1" to="-339736822#0"/>
    <trip id="b2" depart="106.00" from="339736822#2" to="-47519280#2"/>
    <trip id="b3" depart="109.00" from="-408197310#5" to="47519280#3"/>
    <trip id="b4" depart="112.00" from="-339736822#2" to="-339736822#2"/>
    <trip id="b5" depart="115.00" from="406017622#1" to="-47519280#4"/>
    <trip id="b6" depart="118.00" from="-408197310#5" to="-408197311#0"/>
    <trip id="b7" depart="121.00" from="408197311#0" to="410000810#4"/>
    <trip id="b8" depart="124.00" from="-118793670#1" to="408197311#2"/>
    <trip id="b9" depart="127.00" from="47519280#3" to="47519280#4"/>
    <trip id="b10" depart="130.00" from="118644742#1" to="83487127#6"/>
    <trip id="b11" depart="133.00" from="-83487127#4" to="408197311#1"/>
    <trip id="b12" depart="136.00" from="-548881046#1" to="406017622#1"/>
    <trip id="b13" depart="139.00" from="-408197310#5" to="83487127#4"/>
    <trip id="b14" depart="142.00" from="-408197310#4" to="-408197310#4"/>
    <trip id="b15" depart="145.00" from="-392689403#1" to="-118793670#1"/>
    <trip id="b16" depart="148.00" from="263684087#0" to="450271743"/>
    <trip id="b17" depart="151.00" from="-47519280#2" to="-263684087#0"/>
    <trip id="b18" depart="154.00" from="410000810#8" to="-83487127#4"/>
    <trip id="b19" depart="157.00" from="83487127#6" to="-392689403#1"/>
    <trip id="b20" depart="160.00" from="-424959220" to="47519280#2"/>
    <trip id="b21" depart="163.00" from="118075890#0" to="263684087#1"/>
    <trip id="b22" depart="166.00" from="408197311#3" to="392689403#1"/>
    <trip id="b23" depart="169.00" from="263684087#0" to="47519280#2"/>
    <trip id="b24" depart="172.00" from="339736822#2" to="489344451#0"/>
    <trip id="b25" depart="175.00" from="-263684089" to="-408197310#5"/>
    <trip id="b26" depart="178.00" from="-47519280#4" to="-408197311#3"/>
    <trip id="b27" depart="181.00" from="410000810#8" to="-263684087#0"/>
    <trip id="b28" depart="184.00" from="-339736822#2" to="-83487127#6"/>
    <trip id="b29" depart="187.00" from="-96144319" to="408197311#2"/>
    <trip id="b30" depart="190.00" from="263684087#0" to="-263684087#1"/>
    <trip id="b31" depart="193.00" from="-392689403#1" to="47519280#3"/>
    <trip id="b32" depart="196.00" from="410000810#2" to="339736822#3"/>
    <trip id="b33" depart="199.00" from="408197311#0" to="316905861#1"/>
    <trip id="b34" depart="202.00" from="406017622#1" to="-392689403#1"/>
    <trip id="b35" depart="205.00" from="408197310#5" to="-339736822#1"/>
    <trip id="b36" depart="208.00" from="-118075890#2" to="-47519280#3"/>
    <trip id="b37" depart="211.00" from="-408197311#4" to="83487127#3"/>
    <trip id="b38" depart="214.00" from="-83487127#6" to="83487127#6"/>
    <trip id="b39" depart="217.00" from="263684087#1" to="-410000814"/>
    <trip id="b40" depart="220.00" from="548881049" to="-47519280#2"/>
    <trip id="b41" depart="223.00" from="408197311#4" to="-408197311#3"/>
    <trip id="b42" depart="226.00" from="118644742#0" to="-339736822#2"/>
    <trip id="b43" depart="229.00" from="-408197311#3" to="47519280#2"/>
    <trip id="b44" depart="232.00" from="-47519280#3" to="408197310#5"/>
    <trip id="b45" depart="235.00" from="363082411#1" to="-408197311#0"/>
    <trip id="b46" depart="238.00" from="-408197311#1" to="-410000814"/>
    <trip id="b47" depart="241.00" from="-263684089" to="408197311#0"/>
    <trip id="b48" depart="244.00" from="406017622#1" to="-489344451#0"/>
    <trip id="b49" depart="247.00" from="408197311#3" to="406017622#1"/>
    <trip id="b50" depart="250.00" from="339736822#0" to="-263684088"/>
    <trip id="b51" depart="253.00" from="-47519280#3" to="-408197310#4"/>
    <trip id="b52" depart="256.00" from="410000810#6" to="-263684087#1"/>
    <trip id="b53" depart="259.00" from="-47519280#4" to="406017622#1"/>
    <trip id="b54" depart="262.00" from="-96144319" to="118075890#1"/>
    <trip id="b55" depart="265.00" from="408197311#4" to="408197311#4"/>
    <trip id="b56" depart="268.00" from="-96144319" to="408197311#2"/>
    <trip id="b57" depart="271.00" from="-489344451#0" to="410000810#8"/>
    <trip id="b58" depart="274.00" from="-408197310#4" to="-408197310#5"/>
    <trip id="b59" depart="277.00" from="-47519280#2" to="392689403#1"/>
    <trip id="b60" depart="280.00" from="450271743" to="-408197311#3"/>
    <trip id="b61" depart="283.00" from="410000810#1" to="-263684087#0"/>
    <trip id="b62" depart="286.00" from="410000810#5" to="-263684087#0"/>
    <trip id="b63" depart="289.00" from="97050358" to="-97050358"/>
    <trip id="b64" depart="292.00" from="408197310#4" to="406017622#1"/>
    <trip id="b65" depart="295.00" from="404287181#2" to="-263684087#1"/>
    <trip id="b66" depart="298.00" from="-339736822#1" to="83487127#4"/>
    <trip id="b67" depart="301.00" from="-96144319" to="47519280#3"/>
    <trip id="b68" depart="304.00" from="339736822#2" to="408197310#5"/>
    <trip id="b69" depart="307.00" from="263684087#0" to="-408197310#3"/>
    <trip id="b70" depart="310.00" from="263684089" to="408197310#5"/>
    <trip id="b71" depart="313.00" from="-392689403#1" to="-408197310#5"/>
    <trip id="b72" depart="316.00" from="-47519280#2" to="-408197310#5"/>
    <trip id="b73" depart="319.00" from="363082411#1" to="96144319"/>
    <trip id="b74" depart="322.00" from="-408197310#5" to="-489344451#1"/>
    <trip id="b75" depart="325.00" from="118075890#6" to="-97050358"/>
    <trip id="b76" depart="328.00" from="408197310#4" to="263684089"/>
    <trip id="b77" depart="331.00" from="-408197310#5" to="410000810#5"/>
    <trip id="b78" depart="334.00" from="410000814" to="410000810#6"/>
    <trip id="b79" depart="337.00" from="408197310#4" to="408197311#0"/>
    <trip id="b80" depart="340.00" from="263684087#0" to="408197310#4"/>
    <trip id="b81" depart="343.00" from="263684087#0" to="408197311#1"/>
    <trip id="b82" depart="346.00" from="392689403#1" to="-83487127#0"/>
    <trip id="b83" depart="349.00" from="363081449#3" to="489344451#0"/>
    <trip id="b84" depart="352.00" from="410000810#8" to="-263684088"/>
    <trip id="b85" depart="355.00" from="406513809" to="-408197311#3"/>
    <trip id="b86" depart="358.00" from="316905861#1" to="-263684087#0"/>
    <trip id="b87" depart="361.00" from="263684087#0" to="263684087#1"/>
    <trip id="b88" depart="364.00" from="410000810#6" to="47519280#2"/>
    <trip id="b89" depart="367.00" from="-339736822#1" to="-408197311#3"/>
    <trip id="b90" depart="370.00" from="97050358" to="-339736822#1"/>
    <trip id="b91" depart="373.00" from="406017622#1" to="-408197310#4"/>
    <trip id="b92" depart="376.00" from="-47519280#2" to="-408197310#5"/>
    <trip id="b93" depart="379.00" from="-408197311#0" to="-263684087#0"/>
    <trip id="b94" depart="382.00" from="-263684089" to="410000810#8"/>
    <trip id="b95" depart="385.00" from="406513809" to="339736822#1"/>
    <trip id="b96" depart="388.00" from="118793670#1" to="339736822#2"/>
    <trip id="b97" depart="391.00" from="-96144319" to="406017622#1"/>
    <trip id="b98" depart="394.00" from="408197310#5" to="-47519280#4"/>
    <trip id="b99" depart="397.00" from="83487127#3" to="-363081449#1"/>
    <trip id="b100" depart="400.00" from="410000810#7" to="118793670#0"/>
    <trip id="b101" depart="403.00" from="392689403#1" to="339736822#1"/>
    <trip id="b102" depart="406.00" from="376385690#3" to="-47519280#2"/>
    <trip id="b103" depart="409.00" from="408197310#3" to="406017622#1"/>
    <trip id="b104" depart="412.00" from="408197310#5" to="-118793670#1"/>
    <trip id="b105" depart="415.00" from="408197311#0" to="410000810#1"/>
    <trip id="b106" depart="418.00" from="118075890#6" to="-489344451#0"/>
    <trip id="b107" depart="421.00" from="408197310#4" to="47519280#2"/>
    <trip id="b108" depart="424.00" from="-263684087#1" to="-263684087#1"/>
    <trip id="b109" depart="427.00" from="-392689403#1" to="410000810#6"/>
    <trip id="b110" depart="430.00" from="408197311#0" to="408197311#5"/>
    <trip id="b111" depart="433.00" from="-263684087#1" to="339736822#1"/>
    <trip id="b112" depart="436.00" from="-118793670#1" to="410000810#8"/>
    <trip id="b113" depart="439.00" from="47519280#2" to="-408197310#3"/>
    <trip id="b114" depart="442.00" from="408197311#3" to="408197311#3"/>
    <trip id="b115" depart="445.00" from="-339736822#0" to="-263684087#0"/>
    <trip id="b116" depart="448.00" from="-408197310#5" to="-47519280#4"/>
    <trip id="b117" depart="451.00" from="-47519280#3" to="47519280#4"/>
    <trip id="b118" depart="454.00" from="410000810#8" to="339736822#1"/>
    <trip id="b119" depart="457.00" from="-96144319" to="450271743"/>
    <trip id="b120" depart="460.00" from="-408197311#3" to="339736822#2"/>
    <trip id="b121" depart="463.00" from="-339736822#1" to="47519280#2"/>
    <trip id="b122" depart="466.00" from="408197310#5" to="47519280#2"/>
    <trip id="b123" depart="469.00" from="-450271743" to="-47519280#3"/>
    <trip id="b124" depart="472.00" from="-408197311#3" to="118075890#2"/>
    <trip id="b125" depart="475.00" from="-47519280#4" to="-47519280#2"/>
    <trip id="b126" depart="478.00" from="-47519280#4" to="-408197310#4"/>
    <trip id="b127" depart="481.00" from="47519280#2" to="-118075890#6"/>
    <trip id="b128" depart="484.00" from="263684087#0" to="47519280#2"/>
    <trip id="b129" depart="487.00" from="-408197310#4" to="47519280#4"/>
    <trip id="b130" depart="490.00" from="-408197310#5" to="-408197311#0"/>
    <trip id="b131" depart="493.00" from="410000810#6" to="83487127#3"/>
    <trip id="b132" depart="496.00" from="-47519280#4" to="339736822#1"/>
    <trip id="b133" depart="499.00" from="392689403#1" to="-263684087#0"/>
    <trip id="b134" depart="502.00" from="-392689403#1" to="-408197311#0"/>
    <trip id="b135" depart="505.00" from="97050358" to="118793670#1"/>
    <trip id="b136" depart="508.00" from="410000814" to="339736822#2"/>
    <trip id="b137" depart="511.00" from="408197310#5" to="-263684087#0"/>
    <trip id="b138" depart="514.00" from="410000810#1" to="-263684087#0"/>
    <trip id="b139" depart="517.00" from="118793670#1" to="-339736822#1"/>
    <trip id="b140" depart="520.00" from="406513809" to="408197310#4"/>
    <trip id="b141" depart="523.00" from="392689403#1" to="-47519280#3"/>
    <trip id="b142" depart="526.00" from="-47519280#2" to="-339736822#2"/>
    <trip id="b143" depart="529.00" from="339736822#2" to="410000810#8"/>
    <trip id="b144" depart="532.00" from="406017622#1" to="263684089"/>
    <trip id="b145" depart="535.00" from="263684087#0" to="118793670#1"/>
    <trip id="b146" depart="538.00" from="408197311#0" to="339736822#1"/>
    <trip id="b147" depart="541.00" from="404287181#0" to="47519280#3"/>
    <trip id="b148" depart="544.00" from="-47519280#2" to="410000810#1"/>
    <trip id="b149" depart="547.00" from="408197311#0" to="339736822#3"/>
    <trip id="b150" depart="550.00" from="-408197311#0" to="408197310#3"/>
    <trip id="b151" depart="553.00" from="-339736822#1" to="-47519280#4"/>
    <trip id="b152" depart="556.00" from="408197310#4" to="-408197310#4"/>
    <trip id="b153" depart="559.00" from="410000810#1" to="-408197311#3"/>
    <trip id="b154" depart="562.00" from="-489344451#0" to="363081449#1"/>
    <trip id="b155" depart="565.00" from="406017622#1" to="-408197310#5"/>
    <trip id="b156" depart="568.00" from="406513809" to="-263684087#1"/>
    <trip id="b157" depart="571.00" from="392689403#1" to="-408197310#3"/>
    <trip id="b158" depart="574.00" from="339736822#1" to="489344451#0"/>
    <trip id="b159" depart="577.00" from="-408197310#4" to="406017622#1"/>
    <trip id="b160" depart="580.00" from="-339736822#1" to="408197310#5"/>
    <trip id="b161" depart="583.00" from="-408197311#3" to="118793670#1"/>
    <trip id="b162" depart="586.00" from="408197310#4" to="410000810#8"/>
    <trip id="b163" depart="589.00" from="263684087#0" to="-408197310#4"/>
    <trip id="b164" depart="592.00" from="339736822#2" to="-548881046#1"/>
    <trip id="b165" depart="595.00" from="339736822#2" to="363081449#3"/>
    <trip id="b166" depart="598.00" from="339736822#2" to="410000810#8"/>
    <trip id="b167" depart="601.00" from="408197310#5" to="47519280#2"/>
    <trip id="b168" depart="604.00" from="-83487127#4" to="-263684087#1"/>
    <trip id="b169" depart="607.00" from="263684087#1" to="-392689403#1"/>
    <trip id="b170" depart="610.00" from="548881046#1" to="408197310#4"/>
    <trip id="b171" depart="613.00" from="408197310#3" to="96144319"/>
    <trip id="b172" depart="616.00" from="410000810#8" to="-408197310#5"/>
    <trip id="b173" depart="619.00" from="410000810#1" to="316905861#1"/>
    <trip id="b174" depart="622.00" from="548881046#1" to="-408197310#4"/>
    <trip id="b175" depart="625.00" from="363081449#1" to="-47519280#2"/>
    <trip id="b176" depart="628.00" from="-47519280#4" to="339736822#3"/>
    <trip id="b177" depart="631.00" from="404287181#0" to="392689403#1"/>
    <trip id="b178" depart="634.00" from="263684087#1" to="363082411#2"/>
    <trip id="b179" depart="637.00" from="408197311#4" to="408197310#4"/>
    <trip id="b180" depart="640.00" from="406513809" to="-363081449#3"/>
    <trip id="b181" depart="643.00" from="408197310#5" to="406017622#1"/>
    <trip id="b182" depart="646.00" from="-339736822#2" to="408197311#0"/>
    <trip id="b183" depart="649.00" from="406017622#1" to="408197310#3"/>
    <trip id="b184" depart="652.00" from="-118075890#0" to="-47519280#2"/>
    <trip id="b185" depart="655.00" from="-408197310#4" to="-392689403#1"/>
    <trip id="b186" depart="658.00" from="47519280#2" to="-47519280#4"/>
    <trip id="b187" depart="661.00" from="363082411#0" to="408197311#0"/>
    <trip id="b188" depart="664.00" from="263684087#0" to="-263684089"/>
    <trip id="b189" depart="667.00" from="-392689404" to="263684088"/>
    <trip id="b190" depart="670.00" from="118075890#6" to="-263684087#1"/>
    <trip id="b191" depart="673.00" from="263684087#1" to="118793670#1"/>
    <trip id="b192" depart="676.00" from="-263684087#1" to="404287181#0"/>
    <trip id="b193" depart="679.00" from="316905861#1" to="410000810#8"/>
    <trip id="b194" depart="682.00" from="47519280#4" to="-408197310#5"/>
    <trip id="b195" depart="685.00" from="47519280#4" to="-118644742#0"/>
    <trip id="b196" depart="688.00" from="-408197311#0" to="404287181#0"/>
    <trip id="b197" depart="691.00" from="47519280#4" to="-408197311#3"/>
    <trip id="b198" depart="694.00" from="406017622#1" to="47519280#4"/>
    <trip id="b199" depart="697.00" from="-263684087#1" to="-47519280#3"/>
    <trip id="b200" depart="700.00" from="408197311#3" to="-408197311#3"/>
    <trip id="b201" depart="703.00" from="408197311#0" to="47519280#2"/>
    <trip id="b202" depart="706.00" from="408197311#0" to="263684087#1"/>
    <trip id="b203" depart="709.00" from="339736822#1" to="47519280#3"/>
    <trip id="b204" depart="712.00" from="-263684089" to="-408197310#4"/>
    <trip id="b205" depart="715.00" from="47519280#4" to="-263684087#0"/>
    <trip id="b206" depart="718.00" from="-47519280#2" to="316905861#1"/>
    <trip id="b207" depart="721.00" from="47519280#2" to="263684088"/>
    <trip id="b208" depart="724.00" from="376385690#3" to="406513809"/>
    <trip id="b209" depart="727.00" from="316905861#1" to="118793670#1"/>
    <trip id="b210" depart="730.00" from="-96144319" to="263684087#1"/>
    <trip id="b211" depart="733.00" from="410000810#5" to="-47519280#2"/>
    <trip id="b212" depart="736.00" from="263684087#0" to="-408197310#5"/>
    <trip id="b213" depart="739.00" from="316905861#0" to="-408197310#5"/>
    <trip id="b214" depart="742.00" from="548881046#1" to="363082411#0"/>
    <trip id="b215" depart="745.00" from="392689403#1" to="83487127#4"/>
    <trip id="b216" depart="748.00" from="263684087#1" to="96144319"/>
    <trip id="b217" depart="751.00" from="263684087#0" to="410000810#6"/>
    <trip id="b218" depart="754.00" from="408197310#4" to="-47519280#4"/>
    <trip id="b219" depart="757.00" from="-363081449#1" to="-408197311#0"/>
    <trip id="b220" depart="760.00" from="263684087#0" to="-408197310#5"/>
    <trip id="b221" depart="763.00" from="-339736822#2" to="-548881046#1"/>
    <trip id="b222" depart="766.00" from="410000810#8" to="410000810#6"/>
    <trip id="b223" depart="769.00" from="376385690#3" to="-263684087#0"/>
    <trip id="b224" depart="772.00" from="363081449#2" to="404287181#0"/>
    <trip id="b225" depart="775.00" from="376385690#3" to="-118075890#6"/>
    <trip id="b226" depart="778.00" from="-96144319" to="-118793670#1"/>
    <trip id="b227" depart="781.00" from="-392689403#1" to="339736822#1"/>
    <trip id="b228" depart="784.00" from="118075890#6" to="47519280#3"/>
    <trip id="b229" depart="787.00" from="-47519280#4" to="-47519280#0"/>
    <trip id="b230" depart="790.00" from="408197310#4" to="263684087#1"/>
    <trip id="b231" depart="793.00" from="-392689403#1" to="-263684089"/>
    <trip id="b232" depart="796.00" from="-408197310#4" to="408197310#4"/>
    <trip id="b233" depart="799.00" from="47519280#4" to="47519280#2"/>
    <trip id="b234" depart="802.00" from="410000814" to="-118644742#0"/>
    <trip id="b235" depart="805.00" from="-408197310#5" to="-263684087#0"/>
    <trip id="b236" depart="808.00" from="-83487127#4" to="47519280#2"/>
    <trip id="b237" depart="811.00" from="263684087#1" to="-263684087#0"/>
    <trip id="b238" depart="814.00" from="410000810#7" to="118793670#1"/>
    <trip id="b239" depart="817.00" from="363081449#1" to="47519280#2"/>
    <trip id="b240" depart="820.00" from="-339736822#0" to="-47519280#2"/>
    <trip id="b241" depart="823.00" from="-263684087#1" to="-118075890#1"/>
    <trip id="b242" depart="826.00" from="263684087#1" to="-339736822#1"/>
    <trip id="b243" depart="829.00" from="361585734" to="-263684088"/>
    <trip id="b244" depart="832.00" from="-408197310#3" to="-489344451#0"/>
    <trip id="b245" depart="835.00" from="408197311#0" to="410000810#8"/>
    <trip id="b246" depart="838.00" from="408197310#5" to="-410000814"/>
    <trip id="b247" depart="841.00" from="404287181#0" to="392689404"/>
    <trip id="b248" depart="844.00" from="47519280#3" to="-263684087#0"/>
    <trip id="b249" depart="847.00" from="-408197311#0" to="-392689403#1"/>
    <trip id="b250" depart="850.00" from="263684087#0" to="363081449#1"/>
    <trip id="b251" depart="853.00" from="408197311#3" to="-489344451#0"/>
    <trip id="b252" depart="856.00" from="408197311#0" to="408197311#0"/>
    <trip id="b253" depart="859.00" from="376385690#0" to="408197310#3"/>
    <trip id="b254" depart="862.00" from="410000810#1" to="410000810#0"/>
    <trip id="b255" depart="865.00" from="408197310#4" to="47519280#4"/>
    <trip id="b256" depart="868.00" from="263684087#0" to="410000810#8"/>
    <trip id="b257" depart="871.00" from="410000814" to="-363081449#3"/>
    <trip id="b258" depart="874.00" from="339736822#1" to="363082411#0"/>
    <trip id="b259" depart="877.00" from="-47519280#3" to="408197311#1"/>
    <trip id="b260" depart="880.00" from="47519280#3" to="118075890#0"/>
    <trip id="b261" depart="883.00" from="-363081449#1" to="339736822#1"/>
    <trip id="b262" depart="886.00" from="-47519280#4" to="-408197310#5"/>
    <trip id="b263" depart="889.00" from="404287181#2" to="-47519280#3"/>
    <trip id="b264" depart="892.00" from="-339736822#1" to="406017622#1"/>
    <trip id="b265" depart="895.00" from="263684087#1" to="404287181#0"/>
    <trip id="b266" depart="898.00" from="263684087#1" to="408197311#2"/>
    <trip id="b267" depart="901.00" from="404287181#0" to="47519280#3"/>
    <trip id="b268" depart="904.00" from="408197310#4" to="408197311#3"/>
    <trip id="b269" depart="907.00" from="-408197311#3" to="410000810#8"/>
    <trip id="b270" depart="910.00" from="-263684087#1" to="408197310#5"/>
    <trip id="b271" depart="913.00" from="-408197311#3" to="376385690#3"/>
    <trip id="b272" depart="916.00" from="363082411#1" to="406017622#1"/>
    <trip id="b273" depart="919.00" from="408197311#4" to="47519280#2"/>
    <trip id="b274" depart="922.00" from="363082411#0" to="-118075890#6"/>
    <trip id="b275" depart="925.00" from="-97050352" to="408197311#3"/>
    <trip id="b276" depart="928.00" from="118793670#1" to="118075890#6"/>
    <trip id="b277" depart="931.00" from="-408197310#5" to="47519280#2"/>
    <trip id="b278" depart="934.00" from="-47519280#2" to="410000810#5"/>
    <trip id="b279" depart="937.00" from="-47519280#4" to="408197311#1"/>
    <trip id="b280" depart="940.00" from="363081449#0" to="-408197311#0"/>
    <trip id="b281" depart="943.00" from="-47519280#2" to="83487127#6"/>
    <trip id="b282" depart="946.00" from="47519280#2" to="-263684087#0"/>
    <trip id="b283" depart="949.00" from="97050358" to="406017622#1"/>
    <trip id="b284" depart="952.00" from="-408197310#5" to="47519280#2"/>
    <trip id="b285" depart="955.00" from="-408197311#2" to="-83487127#6"/>
    <trip id="b286" depart="958.00" from="408197310#4" to="339736822#1"/>
    <trip id="b287" depart="961.00" from="-83487127#4" to="339736822#2"/>
    <trip id="b288" depart="964.00" from="408197310#5" to="47519280#4"/>
    <trip id="b289" depart="967.00" from="408197310#4" to="410000810#7"/>
    <trip id="b290" depart="970.00" from="410000810#6" to="408197311#0"/>
    <trip id="b291" depart="973.00" from="47519280#0" to="47519280#4"/>
    <trip id="b292" depart="976.00" from="548881046#1" to="392689403#1"/>
    <trip id="b293" depart="979.00" from="-339736822#2" to="339736822#0"/>
    <trip id="b294" depart="982.00" from="408197311#0" to="263684087#1"/>
    <trip id="b295" depart="985.00" from="410000810#6" to="263684087#1"/>
    <trip id="b296" depart="988.00" from="-408197310#5" to="408197311#0"/>
    <trip id="b297" depart="991.00" from="83487127#4" to="404287181#0"/>
    <trip id="b298" depart="994.00" from="408197311#5" to="47519280#4"/>
    <trip id="b299" depart="997.00" from="316905861#0" to="-408197311#3"/>
    <trip id="b300" depart="1000.00" from="408197311#2" to="-408197311#2"/>
    <trip id="b301" depart="1003.00" from="47519280#2" to="376385690#3"/>
    <trip id="b302" depart="1006.00" from="118075890#1" to="392689403#1"/>
    <trip id="b303" depart="1009.00" from="339736822#2" to="-408197311#0"/>
    <trip id="b304" depart="1012.00" from="-408197310#5" to="-263684089"/>
    <trip id="b305" depart="1015.00" from="-339736822#3" to="410000810#6"/>
    <trip id="b306" depart="1018.00" from="263684087#0" to="-408197310#4"/>
    <trip id="b307" depart="1021.00" from="408197310#4" to="-263684087#0"/>
    <trip id="b308" depart="1024.00" from="410000810#7" to="47519280#2"/>
    <trip id="b309" depart="1027.00" from="83487127#3" to="-263684087#1"/>
    <trip id="b310" depart="1030.00" from="263684087#1" to="410000810#5"/>
    <trip id="b311" depart="1033.00" from="-408197310#4" to="-83487127#0"/>
    <trip id="b312" depart="1036.00" from="47519280#3" to="83487127#6"/>
    <trip id="b313" depart="1039.00" from="404287181#0" to="-263684089"/>
    <trip id="b314" depart="1042.00" from="118075890#0" to="408197310#4"/>
    <trip id="b315" depart="1045.00" from="-408197311#3" to="339736822#1"/>
    <trip id="b316" depart="1048.00" from="118075890#2" to="339736822#1"/>
    <trip id="b317" depart="1051.00" from="339736822#2" to="408197311#1"/>
    <trip id="b318" depart="1054.00" from="47519280#4" to="-97050358"/>
    <trip id="b319" depart="1057.00" from="406513809" to="47519280#2"/>
    <trip id="b320" depart="1060.00" from="263684089" to="-118075890#5"/>
    <trip id="b321" depart="1063.00" from="-408197311#2" to="-118793670#1"/>
    <trip id="b322" depart="1066.00" from="548881046#1" to="-489344451#0"/>
    <trip id="b323" depart="1069.00" from="263684087#0" to="408197310#3"/>
    <trip id="b324" depart="1072.00" from="404287181#2" to="408197310#4"/>
    <trip id="b325" depart="1075.00" from="392689403#1" to="-408197311#0"/>
    <trip id="b326" depart="1078.00" from="489344451#0" to="363081449#3"/>
    <trip id="b327" depart="1081.00" from="-408197310#4" to="83487127#6"/>
    <trip id="b328" depart="1084.00" from="-408197311#3" to="-263684087#0"/>
    <trip id="b329" depart="1087.00" from="83487127#4" to="263684089"/>
    <trip id="b330" depart="1090.00" from="408197311#3" to="-263684087#1"/>
    <trip id="b331" depart="1093.00" from="410000810#6" to="-408197310#3"/>
    <trip id="b332" depart="1096.00" from="263684087#0" to="339736822#1"/>
    <trip id="b333" depart="1099.00" from="-263684087#1" to="-47519280#4"/>
    <trip id="b334" depart="1102.00" from="-392689403#1" to="363082411#0"/>
    <trip id="b335" depart="1105.00" from="-408197310#4" to="-118075890#0"/>
    <trip id="b336" depart="1108.00" from="118793670#1" to="408197311#0"/>
    <trip id="b337" depart="1111.00" from="118075890#2" to="47519280#4"/>
    <trip id="b338" depart="1114.00" from="83487127#4" to="-118075890#6"/>
    <trip id="b339" depart="1117.00" from="339736822#0" to="406017622#1"/>
    <trip id="b340" depart="1120.00" from="410000810#8" to="404287181#2"/>
    <trip id="b341" depart="1123.00" from="263684087#0" to="-263684089"/>
    <trip id="b342" depart="1126.00" from="406513809" to="548881046#1"/>
    <trip id="b343" depart="1129.00" from="408197311#3" to="-363081449#1"/>
    <trip id="b344" depart="1132.00" from="548881046#1" to="404287181#2"/>
    <trip id="b345" depart="1135.00" from="410000810#6" to="47519280#4"/>
    <trip id="b346" depart="1138.00" from="410000810#5" to="-263684089"/>
    <trip id="b347" depart="1141.00" from="-408197311#3" to="-339736822#1"/>
    <trip id="b348" depart="1144.00" from="410000810#5" to="-339736822#2"/>
    <trip id="b349" depart="1147.00" from="47519280#2" to="-47519280#3"/>
    <trip id="b350" depart="1150.00" from="408197311#0" to="-47519280#3"/>
    <trip id="b351" depart="1153.00" from="339736822#1" to="-118075890#2"/>
    <trip id="b352" depart="1156.00" from="47519280#3" to="408197310#5"/>
    <trip id="b353" depart="1159.00" from="410000810#6" to="410000810#5"/>
    <trip id="b354" depart="1162.00" from="-118075890#6" to="410000810#8"/>
    <trip id="b355" depart="1165.00" from="-47519280#3" to="-47519280#2"/>
    <trip id="b356" depart="1168.00" from="-408197311#0" to="-47519280#4"/>
    <trip id="b357" depart="1171.00" from="-489344451#0" to="339736822#1"/>
    <trip id="b358" depart="1174.00" from="263684088" to="-47519280#4"/>
    <trip id="b359" depart="1177.00" from="339736822#2" to="406017622#1"/>
    <trip id="b360" depart="1180.00" from="-263684087#1" to="-47519280#4"/>
    <trip id="b361" depart="1183.00" from="363082411#0" to="408197310#5"/>
    <trip id="b362" depart="1186.00" from="404287181#0" to="408197311#0"/>
    <trip id="b363" depart="1189.00" from="47519280#4" to="408197310#4"/>
    <trip id="b364" depart="1192.00" from="-339736822#1" to="410000810#6"/>
    <trip id="b365" depart="1195.00" from="408197310#4" to="410000810#7"/>
    <trip id="b366" depart="1198.00" from="-408197311#2" to="-83487127#4"/>
    <trip id="b367" depart="1201.00" from="47519280#2" to="-408197310#5"/>
    <trip id="b368" depart="1204.00" from="489344451#0" to="408197311#3"/>
    <trip id="b369" depart="1207.00" from="408197310#4" to="-263684089"/>
    <trip id="b370" depart="1210.00" from="-363081449#2" to="-263684087#1"/>
    <trip id="b371" depart="1213.00" from="118075890#6" to="408197311#5"/>
    <trip id="b372" depart="1216.00" from="316905861#0" to="363081449#1"/>
    <trip id="b373" depart="1219.00" from="410000810#6" to="118075890#6"/>
    <trip id="b374" depart="1222.00" from="392689403#1" to="-118644742#1"/>
    <trip id="b375" depart="1225.00" from="-408197311#0" to="-408197311#3"/>
    <trip id="b376" depart="1228.00" from="118075890#2" to="404287181#2"/>
    <trip id="b377" depart="1231.00" from="118075890#6" to="263684087#1"/>
    <trip id="b378" depart="1234.00" from="-118075890#6" to="263684087#1"/>
    <trip id="b379" depart="1237.00" from="83487127#4" to="408197310#3"/>
    <trip id="b380" depart="1240.00" from="392689403#1" to="96144319"/>
    <trip id="b381" depart="1243.00" from="392689403#1" to="47519280#4"/>
    <trip id="b382" depart="1246.00" from="-263684087#1" to="410000810#1"/>
    <trip id="b383" depart="1249.00" from="-408197311#0" to="-263684087#0"/>
    <trip id="b384" depart="1252.00" from="361585734" to="-263684087#0"/>
    <trip id="b385" depart="1255.00" from="-339736822#1" to="-263684088"/>
    <trip id="b386" depart="1258.00" from="47519280#4" to="118793670#1"/>
    <trip id="b387" depart="1261.00" from="392689403#1" to="408197311#0"/>
    <trip id="b388" depart="1264.00" from="263684087#0" to="47519280#2"/>
    <trip id="b389" depart="1267.00" from="408197311#2" to="404287181#0"/>
    <trip id="b390" depart="1270.00" from="-408197311#3" to="408197310#4"/>
    <trip id="b391" depart="1273.00" from="363082411#0" to="-263684087#1"/>
    <trip id="b392" depart="1276.00" from="47519280#3" to="376385690#0"/>
    <trip id="b393" depart="1279.00" from="339736822#1" to="363082411#1"/>
    <trip id="b394" depart="1282.00" from="-96144319" to="410000810#1"/>
    <trip id="b395" depart="1285.00" from="408197311#3" to="96144319"/>
    <trip id="b396" depart="1288.00" from="408197311#0" to="408197310#5"/>
    <trip id="b397" depart="1291.00" from="408197311#1" to="-263684087#0"/>